# MODFLOW2000 Discretization File
 625  60  120  1  4  0
 0 0 0 0 0 0 0 0 0 0 0 0 0 0 0 0 0 0 0 0 0 0 0 0 0 0 0 0 0 0 0 0 0 0 0 0 0 0 0 0 0 0 0 0 0 0 0 0 0 0
 0 0 0 0 0 0 0 0 0 0 0 0 0 0 0 0 0 0 0 0 0 0 0 0 0 0 0 0 0 0 0 0 0 0 0 0 0 0 0 0 0 0 0 0 0 0 0 0 0 0
 0 0 0 0 0 0 0 0 0 0 0 0 0 0 0 0 0 0 0 0 0 0 0 0 0 0 0 0 0 0 0 0 0 0 0 0 0 0 0 0 0 0 0 0 0 0 0 0 0 0
 0 0 0 0 0 0 0 0 0 0 0 0 0 0 0 0 0 0 0 0 0 0 0 0 0 0 0 0 0 0 0 0 0 0 0 0 0 0 0 0 0 0 0 0 0 0 0 0 0 0
 0 0 0 0 0 0 0 0 0 0 0 0 0 0 0 0 0 0 0 0 0 0 0 0 0 0 0 0 0 0 0 0 0 0 0 0 0 0 0 0 0 0 0 0 0 0 0 0 0 0
 0 0 0 0 0 0 0 0 0 0 0 0 0 0 0 0 0 0 0 0 0 0 0 0 0 0 0 0 0 0 0 0 0 0 0 0 0 0 0 0 0 0 0 0 0 0 0 0 0 0
 0 0 0 0 0 0 0 0 0 0 0 0 0 0 0 0 0 0 0 0 0 0 0 0 0 0 0 0 0 0 0 0 0 0 0 0 0 0 0 0 0 0 0 0 0 0 0 0 0 0
 0 0 0 0 0 0 0 0 0 0 0 0 0 0 0 0 0 0 0 0 0 0 0 0 0 0 0 0 0 0 0 0 0 0 0 0 0 0 0 0 0 0 0 0 0 0 0 0 0 0
 0 0 0 0 0 0 0 0 0 0 0 0 0 0 0 0 0 0 0 0 0 0 0 0 0 0 0 0 0 0 0 0 0 0 0 0 0 0 0 0 0 0 0 0 0 0 0 0 0 0
 0 0 0 0 0 0 0 0 0 0 0 0 0 0 0 0 0 0 0 0 0 0 0 0 0 0 0 0 0 0 0 0 0 0 0 0 0 0 0 0 0 0 0 0 0 0 0 0 0 0
 0 0 0 0 0 0 0 0 0 0 0 0 0 0 0 0 0 0 0 0 0 0 0 0 0 0 0 0 0 0 0 0 0 0 0 0 0 0 0 0 0 0 0 0 0 0 0 0 0 0
 0 0 0 0 0 0 0 0 0 0 0 0 0 0 0 0 0 0 0 0 0 0 0 0 0 0 0 0 0 0 0 0 0 0 0 0 0 0 0 0 0 0 0 0 0 0 0 0 0 0
 0 0 0 0 0 0 0 0 0 0 0 0 0 0 0 0 0 0 0 0 0 0 0 0 0
         0  160.0000(10E12.4)                    0     DELTA-X or C
         0  100.0000(10E12.4)                    0     DELTA-Y or R
         0  250.0000(10e12.4)                   -1     TOP of Model
         0  249.6000(10e12.4)                   -1     BOTTOM of Layer   1
         0  249.2000(10e12.4)                   -1     BOTTOM of Layer   2
         0  248.8000(10e12.4)                   -1     BOTTOM of Layer   3
         0  248.4000(10e12.4)                   -1     BOTTOM of Layer   4
         0  248.0000(10e12.4)                   -1     BOTTOM of Layer   5
         0  247.6000(10e12.4)                   -1     BOTTOM of Layer   6
         0  247.2000(10e12.4)                   -1     BOTTOM of Layer   7
         0  246.8000(10e12.4)                   -1     BOTTOM of Layer   8
         0  246.4000(10e12.4)                   -1     BOTTOM of Layer   9
         0  246.0000(10e12.4)                   -1     BOTTOM of Layer  10
         0  245.6000(10e12.4)                   -1     BOTTOM of Layer  11
         0  245.2000(10e12.4)                   -1     BOTTOM of Layer  12
         0  244.8000(10e12.4)                   -1     BOTTOM of Layer  13
         0  244.4000(10e12.4)                   -1     BOTTOM of Layer  14
         0  244.0000(10e12.4)                   -1     BOTTOM of Layer  15
         0  243.6000(10e12.4)                   -1     BOTTOM of Layer  16
         0  243.2000(10e12.4)                   -1     BOTTOM of Layer  17
         0  242.8000(10e12.4)                   -1     BOTTOM of Layer  18
         0  242.4000(10e12.4)                   -1     BOTTOM of Layer  19
         0  242.0000(10e12.4)                   -1     BOTTOM of Layer  20
         0  241.6000(10e12.4)                   -1     BOTTOM of Layer  21
         0  241.2000(10e12.4)                   -1     BOTTOM of Layer  22
         0  240.8000(10e12.4)                   -1     BOTTOM of Layer  23
         0  240.4000(10e12.4)                   -1     BOTTOM of Layer  24
         0  240.0000(10e12.4)                   -1     BOTTOM of Layer  25
         0  239.6000(10e12.4)                   -1     BOTTOM of Layer  26
         0  239.2000(10e12.4)                   -1     BOTTOM of Layer  27
         0  238.8000(10e12.4)                   -1     BOTTOM of Layer  28
         0  238.4000(10e12.4)                   -1     BOTTOM of Layer  29
         0  238.0000(10e12.4)                   -1     BOTTOM of Layer  30
         0  237.6000(10e12.4)                   -1     BOTTOM of Layer  31
         0  237.2000(10e12.4)                   -1     BOTTOM of Layer  32
         0  236.8000(10e12.4)                   -1     BOTTOM of Layer  33
         0  236.4000(10e12.4)                   -1     BOTTOM of Layer  34
         0  236.0000(10e12.4)                   -1     BOTTOM of Layer  35
         0  235.6000(10e12.4)                   -1     BOTTOM of Layer  36
         0  235.2000(10e12.4)                   -1     BOTTOM of Layer  37
         0  234.8000(10e12.4)                   -1     BOTTOM of Layer  38
         0  234.4000(10e12.4)                   -1     BOTTOM of Layer  39
         0  234.0000(10e12.4)                   -1     BOTTOM of Layer  40
         0  233.6000(10e12.4)                   -1     BOTTOM of Layer  41
         0  233.2000(10e12.4)                   -1     BOTTOM of Layer  42
         0  232.8000(10e12.4)                   -1     BOTTOM of Layer  43
         0  232.4000(10e12.4)                   -1     BOTTOM of Layer  44
         0  232.0000(10e12.4)                   -1     BOTTOM of Layer  45
         0  231.6000(10e12.4)                   -1     BOTTOM of Layer  46
         0  231.2000(10e12.4)                   -1     BOTTOM of Layer  47
         0  230.8000(10e12.4)                   -1     BOTTOM of Layer  48
         0  230.4000(10e12.4)                   -1     BOTTOM of Layer  49
         0  230.0000(10e12.4)                   -1     BOTTOM of Layer  50
         0  229.6000(10e12.4)                   -1     BOTTOM of Layer  51
         0  229.2000(10e12.4)                   -1     BOTTOM of Layer  52
         0  228.8000(10e12.4)                   -1     BOTTOM of Layer  53
         0  228.4000(10e12.4)                   -1     BOTTOM of Layer  54
         0  228.0000(10e12.4)                   -1     BOTTOM of Layer  55
         0  227.6000(10e12.4)                   -1     BOTTOM of Layer  56
         0  227.2000(10e12.4)                   -1     BOTTOM of Layer  57
         0  226.8000(10e12.4)                   -1     BOTTOM of Layer  58
         0  226.4000(10e12.4)                   -1     BOTTOM of Layer  59
         0  226.0000(10e12.4)                   -1     BOTTOM of Layer  60
         0  225.6000(10e12.4)                   -1     BOTTOM of Layer  61
         0  225.2000(10e12.4)                   -1     BOTTOM of Layer  62
         0  224.8000(10e12.4)                   -1     BOTTOM of Layer  63
         0  224.4000(10e12.4)                   -1     BOTTOM of Layer  64
         0  224.0000(10e12.4)                   -1     BOTTOM of Layer  65
         0  223.6000(10e12.4)                   -1     BOTTOM of Layer  66
         0  223.2000(10e12.4)                   -1     BOTTOM of Layer  67
         0  222.8000(10e12.4)                   -1     BOTTOM of Layer  68
         0  222.4000(10e12.4)                   -1     BOTTOM of Layer  69
         0  222.0000(10e12.4)                   -1     BOTTOM of Layer  70
         0  221.6000(10e12.4)                   -1     BOTTOM of Layer  71
         0  221.2000(10e12.4)                   -1     BOTTOM of Layer  72
         0  220.8000(10e12.4)                   -1     BOTTOM of Layer  73
         0  220.4000(10e12.4)                   -1     BOTTOM of Layer  74
         0  220.0000(10e12.4)                   -1     BOTTOM of Layer  75
         0  219.6000(10e12.4)                   -1     BOTTOM of Layer  76
         0  219.2000(10e12.4)                   -1     BOTTOM of Layer  77
         0  218.8000(10e12.4)                   -1     BOTTOM of Layer  78
         0  218.4000(10e12.4)                   -1     BOTTOM of Layer  79
         0  218.0000(10e12.4)                   -1     BOTTOM of Layer  80
         0  217.6000(10e12.4)                   -1     BOTTOM of Layer  81
         0  217.2000(10e12.4)                   -1     BOTTOM of Layer  82
         0  216.8000(10e12.4)                   -1     BOTTOM of Layer  83
         0  216.4000(10e12.4)                   -1     BOTTOM of Layer  84
         0  216.0000(10e12.4)                   -1     BOTTOM of Layer  85
         0  215.6000(10e12.4)                   -1     BOTTOM of Layer  86
         0  215.2000(10e12.4)                   -1     BOTTOM of Layer  87
         0  214.8000(10e12.4)                   -1     BOTTOM of Layer  88
         0  214.4000(10e12.4)                   -1     BOTTOM of Layer  89
         0  214.0000(10e12.4)                   -1     BOTTOM of Layer  90
         0  213.6000(10e12.4)                   -1     BOTTOM of Layer  91
         0  213.2000(10e12.4)                   -1     BOTTOM of Layer  92
         0  212.8000(10e12.4)                   -1     BOTTOM of Layer  93
         0  212.4000(10e12.4)                   -1     BOTTOM of Layer  94
         0  212.0000(10e12.4)                   -1     BOTTOM of Layer  95
         0  211.6000(10e12.4)                   -1     BOTTOM of Layer  96
         0  211.2000(10e12.4)                   -1     BOTTOM of Layer  97
         0  210.8000(10e12.4)                   -1     BOTTOM of Layer  98
         0  210.4000(10e12.4)                   -1     BOTTOM of Layer  99
         0  210.0000(10e12.4)                   -1     BOTTOM of Layer 100
         0  209.6000(10e12.4)                   -1     BOTTOM of Layer 101
         0  209.2000(10e12.4)                   -1     BOTTOM of Layer 102
         0  208.8000(10e12.4)                   -1     BOTTOM of Layer 103
         0  208.4000(10e12.4)                   -1     BOTTOM of Layer 104
         0  208.0000(10e12.4)                   -1     BOTTOM of Layer 105
         0  207.6000(10e12.4)                   -1     BOTTOM of Layer 106
         0  207.2000(10e12.4)                   -1     BOTTOM of Layer 107
         0  206.8000(10e12.4)                   -1     BOTTOM of Layer 108
         0  206.4000(10e12.4)                   -1     BOTTOM of Layer 109
         0  206.0000(10e12.4)                   -1     BOTTOM of Layer 110
         0  205.6000(10e12.4)                   -1     BOTTOM of Layer 111
         0  205.2000(10e12.4)                   -1     BOTTOM of Layer 112
         0  204.8000(10e12.4)                   -1     BOTTOM of Layer 113
         0  204.4000(10e12.4)                   -1     BOTTOM of Layer 114
         0  204.0000(10e12.4)                   -1     BOTTOM of Layer 115
         0  203.6000(10e12.4)                   -1     BOTTOM of Layer 116
         0  203.2000(10e12.4)                   -1     BOTTOM of Layer 117
         0  202.8000(10e12.4)                   -1     BOTTOM of Layer 118
         0  202.4000(10e12.4)                   -1     BOTTOM of Layer 119
         0  202.0000(10e12.4)                   -1     BOTTOM of Layer 120
         0  201.6000(10e12.4)                   -1     BOTTOM of Layer 121
         0  201.2000(10e12.4)                   -1     BOTTOM of Layer 122
         0  200.8000(10e12.4)                   -1     BOTTOM of Layer 123
         0  200.4000(10e12.4)                   -1     BOTTOM of Layer 124
         0  200.0000(10e12.4)                   -1     BOTTOM of Layer 125
         0  199.6000(10e12.4)                   -1     BOTTOM of Layer 126
         0  199.2000(10e12.4)                   -1     BOTTOM of Layer 127
         0  198.8000(10e12.4)                   -1     BOTTOM of Layer 128
         0  198.4000(10e12.4)                   -1     BOTTOM of Layer 129
         0  198.0000(10e12.4)                   -1     BOTTOM of Layer 130
         0  197.6000(10e12.4)                   -1     BOTTOM of Layer 131
         0  197.2000(10e12.4)                   -1     BOTTOM of Layer 132
         0  196.8000(10e12.4)                   -1     BOTTOM of Layer 133
         0  196.4000(10e12.4)                   -1     BOTTOM of Layer 134
         0  196.0000(10e12.4)                   -1     BOTTOM of Layer 135
         0  195.6000(10e12.4)                   -1     BOTTOM of Layer 136
         0  195.2000(10e12.4)                   -1     BOTTOM of Layer 137
         0  194.8000(10e12.4)                   -1     BOTTOM of Layer 138
         0  194.4000(10e12.4)                   -1     BOTTOM of Layer 139
         0  194.0000(10e12.4)                   -1     BOTTOM of Layer 140
         0  193.6000(10e12.4)                   -1     BOTTOM of Layer 141
         0  193.2000(10e12.4)                   -1     BOTTOM of Layer 142
         0  192.8000(10e12.4)                   -1     BOTTOM of Layer 143
         0  192.4000(10e12.4)                   -1     BOTTOM of Layer 144
         0  192.0000(10e12.4)                   -1     BOTTOM of Layer 145
         0  191.6000(10e12.4)                   -1     BOTTOM of Layer 146
         0  191.2000(10e12.4)                   -1     BOTTOM of Layer 147
         0  190.8000(10e12.4)                   -1     BOTTOM of Layer 148
         0  190.4000(10e12.4)                   -1     BOTTOM of Layer 149
         0  190.0000(10e12.4)                   -1     BOTTOM of Layer 150
         0  189.6000(10e12.4)                   -1     BOTTOM of Layer 151
         0  189.2000(10e12.4)                   -1     BOTTOM of Layer 152
         0  188.8000(10e12.4)                   -1     BOTTOM of Layer 153
         0  188.4000(10e12.4)                   -1     BOTTOM of Layer 154
         0  188.0000(10e12.4)                   -1     BOTTOM of Layer 155
         0  187.6000(10e12.4)                   -1     BOTTOM of Layer 156
         0  187.2000(10e12.4)                   -1     BOTTOM of Layer 157
         0  186.8000(10e12.4)                   -1     BOTTOM of Layer 158
         0  186.4000(10e12.4)                   -1     BOTTOM of Layer 159
         0  186.0000(10e12.4)                   -1     BOTTOM of Layer 160
         0  185.6000(10e12.4)                   -1     BOTTOM of Layer 161
         0  185.2000(10e12.4)                   -1     BOTTOM of Layer 162
         0  184.8000(10e12.4)                   -1     BOTTOM of Layer 163
         0  184.4000(10e12.4)                   -1     BOTTOM of Layer 164
         0  184.0000(10e12.4)                   -1     BOTTOM of Layer 165
         0  183.6000(10e12.4)                   -1     BOTTOM of Layer 166
         0  183.2000(10e12.4)                   -1     BOTTOM of Layer 167
         0  182.8000(10e12.4)                   -1     BOTTOM of Layer 168
         0  182.4000(10e12.4)                   -1     BOTTOM of Layer 169
         0  182.0000(10e12.4)                   -1     BOTTOM of Layer 170
         0  181.6000(10e12.4)                   -1     BOTTOM of Layer 171
         0  181.2000(10e12.4)                   -1     BOTTOM of Layer 172
         0  180.8000(10e12.4)                   -1     BOTTOM of Layer 173
         0  180.4000(10e12.4)                   -1     BOTTOM of Layer 174
         0  180.0000(10e12.4)                   -1     BOTTOM of Layer 175
         0  179.6000(10e12.4)                   -1     BOTTOM of Layer 176
         0  179.2000(10e12.4)                   -1     BOTTOM of Layer 177
         0  178.8000(10e12.4)                   -1     BOTTOM of Layer 178
         0  178.4000(10e12.4)                   -1     BOTTOM of Layer 179
         0  178.0000(10e12.4)                   -1     BOTTOM of Layer 180
         0  177.6000(10e12.4)                   -1     BOTTOM of Layer 181
         0  177.2000(10e12.4)                   -1     BOTTOM of Layer 182
         0  176.8000(10e12.4)                   -1     BOTTOM of Layer 183
         0  176.4000(10e12.4)                   -1     BOTTOM of Layer 184
         0  176.0000(10e12.4)                   -1     BOTTOM of Layer 185
         0  175.6000(10e12.4)                   -1     BOTTOM of Layer 186
         0  175.2000(10e12.4)                   -1     BOTTOM of Layer 187
         0  174.8000(10e12.4)                   -1     BOTTOM of Layer 188
         0  174.4000(10e12.4)                   -1     BOTTOM of Layer 189
         0  174.0000(10e12.4)                   -1     BOTTOM of Layer 190
         0  173.6000(10e12.4)                   -1     BOTTOM of Layer 191
         0  173.2000(10e12.4)                   -1     BOTTOM of Layer 192
         0  172.8000(10e12.4)                   -1     BOTTOM of Layer 193
         0  172.4000(10e12.4)                   -1     BOTTOM of Layer 194
         0  172.0000(10e12.4)                   -1     BOTTOM of Layer 195
         0  171.6000(10e12.4)                   -1     BOTTOM of Layer 196
         0  171.2000(10e12.4)                   -1     BOTTOM of Layer 197
         0  170.8000(10e12.4)                   -1     BOTTOM of Layer 198
         0  170.4000(10e12.4)                   -1     BOTTOM of Layer 199
         0  170.0000(10e12.4)                   -1     BOTTOM of Layer 200
         0  169.6000(10e12.4)                   -1     BOTTOM of Layer 201
         0  169.2000(10e12.4)                   -1     BOTTOM of Layer 202
         0  168.8000(10e12.4)                   -1     BOTTOM of Layer 203
         0  168.4000(10e12.4)                   -1     BOTTOM of Layer 204
         0  168.0000(10e12.4)                   -1     BOTTOM of Layer 205
         0  167.6000(10e12.4)                   -1     BOTTOM of Layer 206
         0  167.2000(10e12.4)                   -1     BOTTOM of Layer 207
         0  166.8000(10e12.4)                   -1     BOTTOM of Layer 208
         0  166.4000(10e12.4)                   -1     BOTTOM of Layer 209
         0  166.0000(10e12.4)                   -1     BOTTOM of Layer 210
         0  165.6000(10e12.4)                   -1     BOTTOM of Layer 211
         0  165.2000(10e12.4)                   -1     BOTTOM of Layer 212
         0  164.8000(10e12.4)                   -1     BOTTOM of Layer 213
         0  164.4000(10e12.4)                   -1     BOTTOM of Layer 214
         0  164.0000(10e12.4)                   -1     BOTTOM of Layer 215
         0  163.6000(10e12.4)                   -1     BOTTOM of Layer 216
         0  163.2000(10e12.4)                   -1     BOTTOM of Layer 217
         0  162.8000(10e12.4)                   -1     BOTTOM of Layer 218
         0  162.4000(10e12.4)                   -1     BOTTOM of Layer 219
         0  162.0000(10e12.4)                   -1     BOTTOM of Layer 220
         0  161.6000(10e12.4)                   -1     BOTTOM of Layer 221
         0  161.2000(10e12.4)                   -1     BOTTOM of Layer 222
         0  160.8000(10e12.4)                   -1     BOTTOM of Layer 223
         0  160.4000(10e12.4)                   -1     BOTTOM of Layer 224
         0  160.0000(10e12.4)                   -1     BOTTOM of Layer 225
         0  159.6000(10e12.4)                   -1     BOTTOM of Layer 226
         0  159.2000(10e12.4)                   -1     BOTTOM of Layer 227
         0  158.8000(10e12.4)                   -1     BOTTOM of Layer 228
         0  158.4000(10e12.4)                   -1     BOTTOM of Layer 229
         0  158.0000(10e12.4)                   -1     BOTTOM of Layer 230
         0  157.6000(10e12.4)                   -1     BOTTOM of Layer 231
         0  157.2000(10e12.4)                   -1     BOTTOM of Layer 232
         0  156.8000(10e12.4)                   -1     BOTTOM of Layer 233
         0  156.4000(10e12.4)                   -1     BOTTOM of Layer 234
         0  156.0000(10e12.4)                   -1     BOTTOM of Layer 235
         0  155.6000(10e12.4)                   -1     BOTTOM of Layer 236
         0  155.2000(10e12.4)                   -1     BOTTOM of Layer 237
         0  154.8000(10e12.4)                   -1     BOTTOM of Layer 238
         0  154.4000(10e12.4)                   -1     BOTTOM of Layer 239
         0  154.0000(10e12.4)                   -1     BOTTOM of Layer 240
         0  153.6000(10e12.4)                   -1     BOTTOM of Layer 241
         0  153.2000(10e12.4)                   -1     BOTTOM of Layer 242
         0  152.8000(10e12.4)                   -1     BOTTOM of Layer 243
         0  152.4000(10e12.4)                   -1     BOTTOM of Layer 244
         0  152.0000(10e12.4)                   -1     BOTTOM of Layer 245
         0  151.6000(10e12.4)                   -1     BOTTOM of Layer 246
         0  151.2000(10e12.4)                   -1     BOTTOM of Layer 247
         0  150.8000(10e12.4)                   -1     BOTTOM of Layer 248
         0  150.4000(10e12.4)                   -1     BOTTOM of Layer 249
         0  150.0000(10e12.4)                   -1     BOTTOM of Layer 250
         0  149.6000(10e12.4)                   -1     BOTTOM of Layer 251
         0  149.2000(10e12.4)                   -1     BOTTOM of Layer 252
         0  148.8000(10e12.4)                   -1     BOTTOM of Layer 253
         0  148.4000(10e12.4)                   -1     BOTTOM of Layer 254
         0  148.0000(10e12.4)                   -1     BOTTOM of Layer 255
         0  147.6000(10e12.4)                   -1     BOTTOM of Layer 256
         0  147.2000(10e12.4)                   -1     BOTTOM of Layer 257
         0  146.8000(10e12.4)                   -1     BOTTOM of Layer 258
         0  146.4000(10e12.4)                   -1     BOTTOM of Layer 259
         0  146.0000(10e12.4)                   -1     BOTTOM of Layer 260
         0  145.6000(10e12.4)                   -1     BOTTOM of Layer 261
         0  145.2000(10e12.4)                   -1     BOTTOM of Layer 262
         0  144.8000(10e12.4)                   -1     BOTTOM of Layer 263
         0  144.4000(10e12.4)                   -1     BOTTOM of Layer 264
         0  144.0000(10e12.4)                   -1     BOTTOM of Layer 265
         0  143.6000(10e12.4)                   -1     BOTTOM of Layer 266
         0  143.2000(10e12.4)                   -1     BOTTOM of Layer 267
         0  142.8000(10e12.4)                   -1     BOTTOM of Layer 268
         0  142.4000(10e12.4)                   -1     BOTTOM of Layer 269
         0  142.0000(10e12.4)                   -1     BOTTOM of Layer 270
         0  141.6000(10e12.4)                   -1     BOTTOM of Layer 271
         0  141.2000(10e12.4)                   -1     BOTTOM of Layer 272
         0  140.8000(10e12.4)                   -1     BOTTOM of Layer 273
         0  140.4000(10e12.4)                   -1     BOTTOM of Layer 274
         0  140.0000(10e12.4)                   -1     BOTTOM of Layer 275
         0  139.6000(10e12.4)                   -1     BOTTOM of Layer 276
         0  139.2000(10e12.4)                   -1     BOTTOM of Layer 277
         0  138.8000(10e12.4)                   -1     BOTTOM of Layer 278
         0  138.4000(10e12.4)                   -1     BOTTOM of Layer 279
         0  138.0000(10e12.4)                   -1     BOTTOM of Layer 280
         0  137.6000(10e12.4)                   -1     BOTTOM of Layer 281
         0  137.2000(10e12.4)                   -1     BOTTOM of Layer 282
         0  136.8000(10e12.4)                   -1     BOTTOM of Layer 283
         0  136.4000(10e12.4)                   -1     BOTTOM of Layer 284
         0  136.0000(10e12.4)                   -1     BOTTOM of Layer 285
         0  135.6000(10e12.4)                   -1     BOTTOM of Layer 286
         0  135.2000(10e12.4)                   -1     BOTTOM of Layer 287
         0  134.8000(10e12.4)                   -1     BOTTOM of Layer 288
         0  134.4000(10e12.4)                   -1     BOTTOM of Layer 289
         0  134.0000(10e12.4)                   -1     BOTTOM of Layer 290
         0  133.6000(10e12.4)                   -1     BOTTOM of Layer 291
         0  133.2000(10e12.4)                   -1     BOTTOM of Layer 292
         0  132.8000(10e12.4)                   -1     BOTTOM of Layer 293
         0  132.4000(10e12.4)                   -1     BOTTOM of Layer 294
         0  132.0000(10e12.4)                   -1     BOTTOM of Layer 295
         0  131.6000(10e12.4)                   -1     BOTTOM of Layer 296
         0  131.2000(10e12.4)                   -1     BOTTOM of Layer 297
         0  130.8000(10e12.4)                   -1     BOTTOM of Layer 298
         0  130.4000(10e12.4)                   -1     BOTTOM of Layer 299
         0  130.0000(10e12.4)                   -1     BOTTOM of Layer 300
         0  129.6000(10e12.4)                   -1     BOTTOM of Layer 301
         0  129.2000(10e12.4)                   -1     BOTTOM of Layer 302
         0  128.8000(10e12.4)                   -1     BOTTOM of Layer 303
         0  128.4000(10e12.4)                   -1     BOTTOM of Layer 304
         0  128.0000(10e12.4)                   -1     BOTTOM of Layer 305
         0  127.6000(10e12.4)                   -1     BOTTOM of Layer 306
         0  127.2000(10e12.4)                   -1     BOTTOM of Layer 307
         0  126.8000(10e12.4)                   -1     BOTTOM of Layer 308
         0  126.4000(10e12.4)                   -1     BOTTOM of Layer 309
         0  126.0000(10e12.4)                   -1     BOTTOM of Layer 310
         0  125.6000(10e12.4)                   -1     BOTTOM of Layer 311
         0  125.2000(10e12.4)                   -1     BOTTOM of Layer 312
         0  124.8000(10e12.4)                   -1     BOTTOM of Layer 313
         0  124.4000(10e12.4)                   -1     BOTTOM of Layer 314
         0  124.0000(10e12.4)                   -1     BOTTOM of Layer 315
         0  123.6000(10e12.4)                   -1     BOTTOM of Layer 316
         0  123.2000(10e12.4)                   -1     BOTTOM of Layer 317
         0  122.8000(10e12.4)                   -1     BOTTOM of Layer 318
         0  122.4000(10e12.4)                   -1     BOTTOM of Layer 319
         0  122.0000(10e12.4)                   -1     BOTTOM of Layer 320
         0  121.6000(10e12.4)                   -1     BOTTOM of Layer 321
         0  121.2000(10e12.4)                   -1     BOTTOM of Layer 322
         0  120.8000(10e12.4)                   -1     BOTTOM of Layer 323
         0  120.4000(10e12.4)                   -1     BOTTOM of Layer 324
         0  120.0000(10e12.4)                   -1     BOTTOM of Layer 325
         0  119.6000(10e12.4)                   -1     BOTTOM of Layer 326
         0  119.2000(10e12.4)                   -1     BOTTOM of Layer 327
         0  118.8000(10e12.4)                   -1     BOTTOM of Layer 328
         0  118.4000(10e12.4)                   -1     BOTTOM of Layer 329
         0  118.0000(10e12.4)                   -1     BOTTOM of Layer 330
         0  117.6000(10e12.4)                   -1     BOTTOM of Layer 331
         0  117.2000(10e12.4)                   -1     BOTTOM of Layer 332
         0  116.8000(10e12.4)                   -1     BOTTOM of Layer 333
         0  116.4000(10e12.4)                   -1     BOTTOM of Layer 334
         0  116.0000(10e12.4)                   -1     BOTTOM of Layer 335
         0  115.6000(10e12.4)                   -1     BOTTOM of Layer 336
         0  115.2000(10e12.4)                   -1     BOTTOM of Layer 337
         0  114.8000(10e12.4)                   -1     BOTTOM of Layer 338
         0  114.4000(10e12.4)                   -1     BOTTOM of Layer 339
         0  114.0000(10e12.4)                   -1     BOTTOM of Layer 340
         0  113.6000(10e12.4)                   -1     BOTTOM of Layer 341
         0  113.2000(10e12.4)                   -1     BOTTOM of Layer 342
         0  112.8000(10e12.4)                   -1     BOTTOM of Layer 343
         0  112.4000(10e12.4)                   -1     BOTTOM of Layer 344
         0  112.0000(10e12.4)                   -1     BOTTOM of Layer 345
         0  111.6000(10e12.4)                   -1     BOTTOM of Layer 346
         0  111.2000(10e12.4)                   -1     BOTTOM of Layer 347
         0  110.8000(10e12.4)                   -1     BOTTOM of Layer 348
         0  110.4000(10e12.4)                   -1     BOTTOM of Layer 349
         0  110.0000(10e12.4)                   -1     BOTTOM of Layer 350
         0  109.6000(10e12.4)                   -1     BOTTOM of Layer 351
         0  109.2000(10e12.4)                   -1     BOTTOM of Layer 352
         0  108.8000(10e12.4)                   -1     BOTTOM of Layer 353
         0  108.4000(10e12.4)                   -1     BOTTOM of Layer 354
         0  108.0000(10e12.4)                   -1     BOTTOM of Layer 355
         0  107.6000(10e12.4)                   -1     BOTTOM of Layer 356
         0  107.2000(10e12.4)                   -1     BOTTOM of Layer 357
         0  106.8000(10e12.4)                   -1     BOTTOM of Layer 358
         0  106.4000(10e12.4)                   -1     BOTTOM of Layer 359
         0  106.0000(10e12.4)                   -1     BOTTOM of Layer 360
         0  105.6000(10e12.4)                   -1     BOTTOM of Layer 361
         0  105.2000(10e12.4)                   -1     BOTTOM of Layer 362
         0  104.8000(10e12.4)                   -1     BOTTOM of Layer 363
         0  104.4000(10e12.4)                   -1     BOTTOM of Layer 364
         0  104.0000(10e12.4)                   -1     BOTTOM of Layer 365
         0  103.6000(10e12.4)                   -1     BOTTOM of Layer 366
         0  103.2000(10e12.4)                   -1     BOTTOM of Layer 367
         0  102.8000(10e12.4)                   -1     BOTTOM of Layer 368
         0  102.4000(10e12.4)                   -1     BOTTOM of Layer 369
         0  102.0000(10e12.4)                   -1     BOTTOM of Layer 370
         0  101.6000(10e12.4)                   -1     BOTTOM of Layer 371
         0  101.2000(10e12.4)                   -1     BOTTOM of Layer 372
         0  100.8000(10e12.4)                   -1     BOTTOM of Layer 373
         0  100.4000(10e12.4)                   -1     BOTTOM of Layer 374